LAMMPS (7 Feb 2024 - Update 1)
# A script to initialise and equilibrate a quiescent Morse gel. Simulation parameters are
# set in the input file specifying the initial configuration. The input file is generated by a Python script.

# Temperature is set to 1 such that beta epsilon is then the morse well depth
variable run_temp equal 1
variable run_steps equal 100000
variable dump_frames equal 100

variable dump_frequency equal 100000/100
variable thermo_frequency equal 100000/1000

units		lj
atom_style	sphere
atom_modify	map array

pair_style	dpd/tstat 1.0 1.0 1.0 34387
# Read particles and interactions from input file
read_data morse_input_phi0.1084.lmp
Reading data file ...
  orthogonal box = (0 0 0) to (3.815714 3.815714 3.815714)
  reading atoms ...
  50 atoms
# Set up the dpd thermostat interactions; will have to turn the viscosities into variables
pair_coeff 1 1 12
pair_coeff 2 2 7
pair_coeff 1 2 9
pair_modify	shift yes
comm_modify vel yes

# Minimise the energy of the particles since the starting configuration is overlapping
minimize 	1e-10 1e-10 3000 3000
Generated 0 of 1 mixed pair_coeff terms from geometric mixing rule
Step          Temp          E_pair         E_mol          TotEng         Press
0   0              0              0              0              0.67935048
Loop time of 0.00038015 on 1 procs for 1 steps with 50 atoms

Minimization stats:
  Stopping criterion = linesearch alpha is zero
  Energy initial, next-to-last, final =
  Force two-norm initial, final = 301.82816 207.43204
  Force max component initial, final = 119.48832 74.325672
  Final line search alpha, max atom move = 6.2354049e-12 4.6345066e-10
  Iterations, force evaluations = 1 28

# Switch to a triclinic box so we can later deform it
change_box all triclinic
Changing box ...
  triclinic box = (0 0 0) to (3.815714 3.815714 3.815714) with tilt (0 0 0)

# Set initial random particle velocities at T = 1.
velocity all create 1 1234

# We assume box is cubic in the input file
variable L equal xhi-xlo
print "Box size $L"
Box size 3.815714

timestep 0.001

# Set up variables for the thermodynamic output
variable varstep equal step
variable vartemp equal temp
variable varpress equal press
variable varetotal equal etotal
compute  msd all msd
compute  com all com

# Periodically output particle diameter and position data in the lammps atom format
dump        dumpatom all custom 1000 time-*.dump id x y z radius
dump_modify	dumpatom sort id first yes

# Periodically output the mean square displacement
fix	msd all ave/time 1 1 100 c_msd[4] file msd.txt

# Periodically output the center of mass
fix com all ave/time 1 1 100 c_com[1] c_com[2] c_com[3] file com.txt

# Periodically output the position, velocity, and forces for each atom
fix pvf all ave/atom 1 1 100 x y z vx vy vz fx fy fz
dump atompvf all custom 100 pvf.txt id f_pvf[*]

# Periodically print out thermodynamic variables
thermo 100
thermo_style custom step temp press pe

# Do gel equilibration in nvt
fix equilibrate all nvt/sphere temp 1 1 1
run 100000
Generated 0 of 1 mixed pair_coeff terms from geometric mixing rule
Step          Temp          Press          PotEng
1   1              0.85156102     0
Averages over the last 501 of 1002 rows, steps 50100 to 100001:
Temp Press PotEng
1.42071 1.26374 0
Loop time of 11.1791 on 1 procs for 100000 steps with 50 atoms

unfix equilibrate

# Write out a restart file to input to a different script
write_restart equil_100000.restart
System init for write_restart ...
Generated 0 of 1 mixed pair_coeff terms from geometric mixing rule
