LAMMPS (7 Feb 2024 - Update 1)
# A script to initialise and equilibrate a quiescent Morse gel. Simulation parameters are
# set in the input file specifying the initial configuration. The input file is generated by a Python script.

# Temperature is set to 1 such that beta epsilon is then the morse well depth
variable run_temp equal 1
variable run_steps equal 100000
variable dump_frames equal 100

variable dump_frequency equal 100000/100
variable thermo_frequency equal 100000/1000

units		lj
atom_style	atomic
atom_modify	map array

pair_style	hybrid/overlay morse 1.4 dpd/tstat 1.0 1.0 2.5 34387
# Read particles and interactions from input file
read_data morse_input_phi0.1047.lmp
Reading data file ...
  orthogonal box = (0 0 0) to (17.099759 17.099759 17.099759)
  reading atoms ...
  1000 atoms
# Set up the dpd thermostat interactions
pair_coeff * * dpd/tstat 100 1
pair_modify	shift yes
comm_modify vel yes

# Minimise the energy of the particles since the starting configuration is overlapping
minimize 	1e-10 1e-10 3000 3000
Generated 0 of 0 mixed pair_coeff terms from geometric mixing rule
Step          Temp          E_pair         E_mol          TotEng         Press
0   0              9.0868309e+22  0              9.0868309e+22  5.5074942e+22
Loop time of 0.332751 on 1 procs for 491 steps with 1000 atoms

Minimization stats:
  Stopping criterion = max force evaluations
  Energy initial, next-to-last, final =
  Force two-norm initial, final = 4.7440487e+27 43.541857
  Force max component initial, final = 2.1505463e+27 19.966604
  Final line search alpha, max atom move = 0.00012066418 0.0024092539
  Iterations, force evaluations = 491 3006

# Switch to a triclinic box so we can later deform it
change_box all triclinic
Changing box ...
  triclinic box = (0 0 0) to (17.099759 17.099759 17.099759) with tilt (0 0 0)

# Set initial random particle velocities at T = 1.
velocity all create 1 1234

# We assume box is cubic in the input file
variable L equal xhi-xlo
print "Box size $L"
Box size 17.099759

timestep 0.001

# Set up variables for the thermodynamic output
variable varstep equal step
variable vartemp equal temp
variable varpress equal press
variable varetotal equal etotal
compute  msd all msd
compute  com all com

# Periodically output particle position data in the lammps atom format
dump 		dumpatom  all atom 1000 dump-*.lammpstrj
dump_modify	dumpatom sort id first yes

# Periodically output the mean square displacement
fix	msd all ave/time 1 1 100 c_msd[4] file msd.txt

# Periodically output the center of mass
fix com all ave/time 1 1 100 c_com[1] c_com[2] c_com[3] file com.txt

# Perioically print out thermodynamic variables
thermo 100
thermo_style custom step temp press pe

# Do gel equilibration in nvt
fix equilibrate all nvt temp 1 1 1
run 100000
Generated 0 of 0 mixed pair_coeff terms from geometric mixing rule
Step          Temp          Press          PotEng
491   1              0.19390461    -3.7964322
Averages over the last 501 of 1002 rows, steps 50500 to 100491:
Temp Press PotEng
1.00544 0.0115292 -16.145
Loop time of 27.2877 on 1 procs for 100000 steps with 1000 atoms

unfix equilibrate

# Write out a restart file to input to a different script
write_restart equil_100000.restart
System init for write_restart ...
Generated 0 of 0 mixed pair_coeff terms from geometric mixing rule
