LAMMPS (7 Feb 2024 - Update 1)
# A script to initialise and equilibrate a quiescent Morse gel. Simulation parameters are
# set in the input file specifying the initial configuration. The input file is generated by a Python script.

# Temperature is set to 1 such that beta epsilon is then the morse well depth
variable run_temp equal 1
variable run_steps equal 70000
variable dump_frames equal 100

variable dump_frequency equal 70000/100
variable thermo_frequency equal 70000/1000

units		lj
atom_style	sphere
atom_modify	map array

pair_style	hybrid/overlay morse 2.0 dpd/tstat 1.0 1.0 1.0 34387
# Read particles and interactions from input file
read_data morse_input_phi0.0792.lmp
Reading data file ...
  orthogonal box = (0 0 0) to (13.572088 13.572088 13.572088)
  reading atoms ...
  1000 atoms
# Set up the dpd thermostat interactions
pair_coeff 1 1 dpd/tstat 12
pair_coeff 2 2 dpd/tstat 7
pair_coeff 1 2 dpd/tstat 9
pair_modify	shift yes
comm_modify vel yes

# Minimise the energy of the particles since the starting configuration is overlapping
minimize 	1e-10 1e-10 3000 3000
Generated 0 of 1 mixed pair_coeff terms from geometric mixing rule
Step          Temp          E_pair         E_mol          TotEng         Press
0   0             -0.12271629     0             -0.12271629     0.017968146
Loop time of 0.580032 on 1 procs for 399 steps with 1000 atoms

Minimization stats:
  Stopping criterion = max force evaluations
  Energy initial, next-to-last, final =
  Force two-norm initial, final = 823.67813 738.43171
  Force max component initial, final = 143.06645 103.34066
  Final line search alpha, max atom move = 7.165309e-05 0.0074046777
  Iterations, force evaluations = 399 3001

# Switch to a triclinic box so we can later deform it
change_box all triclinic
Changing box ...
  triclinic box = (0 0 0) to (13.572088 13.572088 13.572088) with tilt (0 0 0)

# Set initial random particle velocities at T = 1.
velocity all create 1 1234

# We assume box is cubic in the input file
variable L equal xhi-xlo
print "Box size $L"
Box size 13.572088

timestep 0.001

# Set up variables for the thermodynamic output
variable varstep equal step
variable vartemp equal temp
variable varpress equal press
variable varetotal equal etotal
compute  msd all msd
compute  com all com

# Periodically output particle position data in the lammps atom format
dump 		dumpatom  all atom 700 dump-*.lammpstrj
dump_modify	dumpatom sort id first yes

# Periodically output the mean square displacement
fix	msd all ave/time 1 1 70 c_msd[4] file msd.txt

# Periodically output the center of mass
fix com all ave/time 1 1 70 c_com[1] c_com[2] c_com[3] file com.txt

# Perioically print out thermodynamic variables
thermo 70
thermo_style custom step temp press pe

# Do gel equilibration in nvt
fix equilibrate all nvt temp 1 1 1
run 70000
Generated 0 of 1 mixed pair_coeff terms from geometric mixing rule
Step          Temp          Press          PotEng
399   1              0.16384987    -0.54816176
Averages over the last 501 of 1002 rows, steps 35420 to 70399:
Temp Press PotEng
1.00198 0.193846 -6.3504
Loop time of 125.605 on 1 procs for 70000 steps with 1000 atoms

unfix equilibrate

# Write out a restart file to input to a different script
write_restart equil_70000.restart
System init for write_restart ...
Generated 0 of 1 mixed pair_coeff terms from geometric mixing rule
