LAMMPS (7 Feb 2024 - Update 1)
# A script to initialise and equilibrate a quiescent Morse gel. Simulation parameters are
# set in the input file specifying the initial configuration. The input file is generated by a Python script.

# Temperature is set to 1 such that beta epsilon is then the morse well depth
variable run_temp equal 1
variable run_steps equal 1000000
variable dump_frames equal 100

variable dump_frequency equal 1000000/100
variable thermo_frequency equal 1000000/1000

units		lj
atom_style	sphere
atom_modify	map array

pair_style	hybrid/overlay morse 1.25 dpd/tstat 1 1 1.35 34387
# Read particles and interactions from input file
read_data morse_input_phi0.4712.lmp
Reading data file ...
  orthogonal box = (0 0 0) to (3.815714 3.815714 3.815714)
  reading atoms ...
  50 atoms
# Set up the particle interactions
include coeffs.in
pair_coeff 1 1 morse 5 1.2 1 1.25
pair_coeff 1 1 dpd/tstat 5
pair_modify	shift yes
comm_modify vel yes

# Minimise the energy of the particles since the starting configuration is overlapping
minimize 	1e-10 1e-10 3000 3000
Generated 0 of 0 mixed pair_coeff terms from geometric mixing rule
Step          Temp          E_pair         E_mol          TotEng         Press
0   0              1.2552342      0              1.2552342      2.1665936
Loop time of 0.0580878 on 1 procs for 234 steps with 50 atoms

Minimization stats:
  Stopping criterion = energy tolerance
  Energy initial, next-to-last, final =
  Force two-norm initial, final = 365.87113 218.13159
  Force max component initial, final = 104.15834 61.648232
  Final line search alpha, max atom move = 2.5147077e-10 1.5502728e-08
  Iterations, force evaluations = 234 2313

# Switch to a triclinic box so we can later deform it
change_box all triclinic
Changing box ...
  triclinic box = (0 0 0) to (3.815714 3.815714 3.815714) with tilt (0 0 0)

# Set initial random particle velocities at T = 1.
velocity all create 1 1234

# We assume box is cubic in the input file
variable L equal xhi-xlo
print "Box size $L"
Box size 3.815714

timestep 0.001

# Set up variables for the thermodynamic output
variable varstep equal step
variable vartemp equal temp
variable varpress equal press
variable varetotal equal etotal
compute  msd all msd
compute  com all com

# Periodically output particle diameter and position data in the lammps atom format
dump        dumpatom all custom 10000 time-*.dump id x y z radius
dump_modify	dumpatom sort id first yes

# Periodically output the mean square displacement
fix	msd all ave/time 1 1 1000 c_msd[4] file msd.txt

# Periodically output the center of mass
fix com all ave/time 1 1 1000 c_com[1] c_com[2] c_com[3] file com.txt

# Periodically output the position, velocity, and forces for each atom
fix pvf all ave/atom 1 1 1000 x y z vx vy vz fx fy fz
dump atompvf all custom 1000 pvf.txt id f_pvf[*]

# Periodically print out thermodynamic variables
thermo 1000
thermo_style custom step temp press pe

# Do gel equilibration in nvt
fix equilibrate all nvt/sphere temp 1 1 1
fix nocomdrift all momentum 1000 linear 1 1 1
run 1000000
Generated 0 of 0 mixed pair_coeff terms from geometric mixing rule
Step          Temp          Press          PotEng
234   1             -2.9108663     -0.91353295
Averages over the last 501 of 1002 rows, steps 501000 to 1000234:
Temp Press PotEng
1.54653 1.9148 -0.26949
Loop time of 40.6414 on 1 procs for 1000000 steps with 50 atoms

unfix equilibrate

# Write out a restart file to input to a different script
write_restart equil_1000000.restart
System init for write_restart ...
Generated 0 of 0 mixed pair_coeff terms from geometric mixing rule
