LAMMPS (7 Feb 2024 - Update 1)
# A script to initialise and equilibrate a quiescent Morse gel. Simulation parameters are
# set in the input file specifying the initial configuration. The input file is generated by a Python script.

# Temperature is set to 1 such that beta epsilon is then the morse well depth
variable run_temp equal 1
variable run_steps equal 1000000
variable dump_frames equal 100

variable dump_frequency equal 1000000/100
variable thermo_frequency equal 1000000/1000

units		lj
atom_style	sphere
atom_modify	map array

pair_style	hybrid/overlay morse 1.25 yukawa/colloid 0.9 3.0 dpd/tstat 1 1 3.0 34387
# Read particles and interactions from input file
read_data morse_input_phi0.1047.lmp
Reading data file ...
  orthogonal box = (0 0 0) to (17.099759 17.099759 17.099759)
  reading atoms ...
  1000 atoms
# Set up the particle interactions
pair_coeff  * * yukawa/colloid 6.0
include coeffs.in
pair_coeff 1 1 morse 80 1.5 1 1.25
pair_coeff 1 1 dpd/tstat 3
pair_modify	shift yes
comm_modify vel yes

# Minimise the energy of the particles since the starting configuration is overlapping
minimize 	1e-10 1e-10 3000 3000
Generated 0 of 0 mixed pair_coeff terms from geometric mixing rule
Step          Temp          E_pair         E_mol          TotEng         Press
0   0              26.914929      0              26.914929      5.7385914
Loop time of 2.5807 on 1 procs for 445 steps with 1000 atoms

Minimization stats:
  Stopping criterion = max force evaluations
  Energy initial, next-to-last, final =
  Force two-norm initial, final = 12029.225 1579.2047
  Force max component initial, final = 1818.7746 129.61458
  Final line search alpha, max atom move = 3.0005384e-05 0.0038891352
  Iterations, force evaluations = 445 3001

# Switch to a triclinic box so we can later deform it
change_box all triclinic
Changing box ...
  triclinic box = (0 0 0) to (17.099759 17.099759 17.099759) with tilt (0 0 0)

# Set initial random particle velocities at T = 1.
velocity all create 1 1234

# We assume box is cubic in the input file
variable L equal xhi-xlo
print "Box size $L"
Box size 17.099759

timestep 0.001

# Set up variables for the thermodynamic output
variable varstep equal step
variable vartemp equal temp
variable varpress equal press
variable varetotal equal etotal

compute  msd all msd
compute  com all com
compute neighbors50 all coord/atom cutoff 0.50
compute neighbors75 all coord/atom cutoff 0.75
compute neighbors100 all coord/atom cutoff 1.0
compute neighbors125 all coord/atom cutoff 1.25
compute ac50 all reduce ave c_neighbors50
compute ac75 all reduce ave c_neighbors75
compute ac100 all reduce ave c_neighbors100
compute ac125 all reduce ave c_neighbors125

# Periodically output particle diameter and position data in the lammps atom format
dump        dumpatom all custom 10000 time-*.dump id x y z radius
dump_modify	dumpatom sort id first yes

# Periodically output the mean square displacement
fix	msd all ave/time 1 1 1000 c_msd[4] file msd.txt

# Periodically output the center of mass
fix com all ave/time 1 1 1000 c_com[1] c_com[2] c_com[3] file com.txt

# Periodically output the coordination numbers
fix avgcoord all ave/time 1 1 1000 c_ac50 c_ac75 c_ac100 c_ac125 file avgcoord.txt

# Periodically output the position, velocity, and forces for each atom
fix pvf all ave/atom 1 1 1000 x y z vx vy vz fx fy fz
dump atompvf all custom 1000 pvf.txt id f_pvf[*]

# Periodically print out thermodynamic variables
thermo 1000
thermo_style custom step temp press pe

# Do gel equilibration in nve
fix equilibrate all nve/sphere
# Center of mass is not forced to be fixed
run 1000000
Generated 0 of 0 mixed pair_coeff terms from geometric mixing rule
Step          Temp          Press          PotEng
445   1              2.7543401      4.9952284
Averages over the last 501 of 1002 rows, steps 501000 to 1000445:
Temp Press PotEng
1.00047 1.84339 0.479935
Loop time of 769.469 on 1 procs for 1000000 steps with 1000 atoms

unfix equilibrate

# Write out a restart file to input to a different script
write_restart equil_1000000.restart
System init for write_restart ...
Generated 0 of 0 mixed pair_coeff terms from geometric mixing rule
