LAMMPS (7 Feb 2024 - Update 1)
# A script to initialise and equilibrate a quiescent Morse gel. Simulation parameters are
# set in the input file specifying the initial configuration. The input file is generated by a Python script.

# Temperature is set to 1 such that beta epsilon is then the morse well depth
variable run_temp equal 1
variable run_steps equal 1000000
variable dump_frames equal 100

variable dump_frequency equal 1000000/100
variable thermo_frequency equal 1000000/1000

units		lj
atom_style	sphere
atom_modify	map array

pair_style	hybrid/overlay morse 1.25 yukawa/colloid 0.9 3.0 dpd/tstat 1 1 3.0 34387
# Read particles and interactions from input file
read_data morse_input_phi0.4017.lmp
Reading data file ...
  orthogonal box = (0 0 0) to (6.650287 6.650287 6.650287)
  reading atoms ...
  1000 atoms
# Set up the particle interactions
pair_coeff  * * yukawa/colloid 6.0
include coeffs.in
group type1 type 1
115 atoms in group type1
variable d1 equal 1.0
pair_coeff 1 1 morse 80 1.5 1 1.25
pair_coeff 1 1 dpd/tstat 3
pair_coeff 1 2 morse 205 1.5 0.75 0.9375
pair_coeff 1 2 dpd/tstat 2.25
group type2 type 2
885 atoms in group type2
variable d2 equal 0.5
pair_coeff 2 2 morse 330 1.5 0.5 0.625
pair_coeff 2 2 dpd/tstat 1.5
pair_modify	shift yes
comm_modify vel yes

# Minimise the energy of the particles since the starting configuration is overlapping
minimize 	1e-10 1e-10 3000 3000
Generated 0 of 1 mixed pair_coeff terms from geometric mixing rule
Step          Temp          E_pair         E_mol          TotEng         Press
0   0              218.57147      0              218.57147      736.38513
Loop time of 6.95101 on 1 procs for 128 steps with 1000 atoms

Minimization stats:
  Stopping criterion = energy tolerance
  Energy initial, next-to-last, final =
  Force two-norm initial, final = 28262.476 5423.6349
  Force max component initial, final = 4251.5282 421.54919
  Final line search alpha, max atom move = 2.8379078e-12 1.1963177e-09
  Iterations, force evaluations = 128 483

# Switch to a triclinic box so we can later deform it
change_box all triclinic
Changing box ...
  triclinic box = (0 0 0) to (6.650287 6.650287 6.650287) with tilt (0 0 0)

# Set initial random particle velocities at T = 1.
velocity all create 1 1234

# We assume box is cubic in the input file
variable L equal xhi-xlo
print "Box size $L"
Box size 6.650287

timestep 0.001

# Set up variables for the thermodynamic output
variable varstep equal step
variable vartemp equal temp
variable varpress equal press
variable varetotal equal etotal

compute  msd all msd
compute  com all com

variable da equal (1+0.5)/2
variable cut11 equal 1.25*1
variable cut12 equal 0.75+1/4
variable cut21 equal 0.75+0.5/4
variable cut22 equal 1.25*0.5
compute neighbors11 type1 coord/atom cutoff 1.25 group type1
compute neighbors12 type1 coord/atom cutoff 1 group type2
compute neighbors21 type2 coord/atom cutoff 0.875 group type1
compute neighbors22 type2 coord/atom cutoff 0.625 group type2
variable sc1 atom c_neighbors11+c_neighbors12
variable sc2 atom c_neighbors21+c_neighbors22
compute ac1 all reduce ave v_sc1
compute ac2 all reduce ave v_sc2

# Periodically output particle diameter and position data in the lammps atom format
dump        dumpatom all custom 10000 time-*.dump id x y z radius
dump_modify	dumpatom sort id first yes

# Periodically output the mean square displacement
fix	msd all ave/time 1 1 1000 c_msd[4] file msd.txt

# Periodically output the center of mass
fix com all ave/time 1 1 1000 c_com[1] c_com[2] c_com[3] file com.txt

# Periodically output the coordination numbers
fix avgcoord all ave/time 1 1 1000 c_ac1 c_ac2 file avgcoord.txt

# Periodically output the position, velocity, and forces for each atom

# Periodically print out thermodynamic variables
thermo 1000
thermo_style custom step temp press pe

# Do gel equilibration in nve
fix equilibrate all nve/sphere
# Center of mass is not forced to be fixed
run 1000000
Generated 0 of 1 mixed pair_coeff terms from geometric mixing rule
Step          Temp          Press          PotEng
128   1              576.65512      145.91307
Averages over the last 501 of 1002 rows, steps 501000 to 1000128:
Temp Press PotEng
1.0015 566.531 140.616
Loop time of 12037.4 on 1 procs for 1000000 steps with 1000 atoms

unfix equilibrate

# Write out a restart file to input to a different script
write_restart equil_1000000.restart
System init for write_restart ...
Generated 0 of 1 mixed pair_coeff terms from geometric mixing rule
