LAMMPS (7 Feb 2024 - Update 1)
# A script to initialise and equilibrate a quiescent Morse gel. Simulation parameters are
# set in the input file specifying the initial configuration. The input file is generated by a Python script.

# Temperature is set to 1 such that beta epsilon is then the morse well depth
variable run_temp equal 1
variable run_steps equal 100000
variable dump_frames equal 100

variable dump_frequency equal 100000/100
variable thermo_frequency equal 100000/1000

units		lj
atom_style	atomic
atom_modify	map array

pair_style	hybrid/overlay morse 1.4 dpd/tstat 1.0 1.0 2.5 34387
# Read particles and interactions from input file
read_data morse_input_phi0.1047.lmp
Reading data file ...
  orthogonal box = (0 0 0) to (3.684031 3.684031 3.684031)
  reading atoms ...
  10 atoms
# Set up the dpd thermostat interactions
pair_coeff * * dpd/tstat 100 1
pair_modify	shift yes
comm_modify vel yes

# Minimise the energy of the particles since the starting configuration is overlapping
minimize 	1e-10 1e-10 3000 3000
Generated 0 of 0 mixed pair_coeff terms from geometric mixing rule
Step          Temp          E_pair         E_mol          TotEng         Press
0   0              7.1112084e+15  0              7.1112084e+15  1.3656562e+16
Loop time of 0.00306433 on 1 procs for 130 steps with 10 atoms

Minimization stats:
  Stopping criterion = energy tolerance
  Energy initial, next-to-last, final =
  Force two-norm initial, final = 6.6374665e+18 0.0097427312
  Force max component initial, final = 4.3356277e+18 0.0037552156
  Final line search alpha, max atom move = 1 0.0037552156
  Iterations, force evaluations = 130 974

# Switch to a triclinic box so we can later deform it
change_box all triclinic
Changing box ...
  triclinic box = (0 0 0) to (3.684031 3.684031 3.684031) with tilt (0 0 0)

# Set initial random particle velocities at T = 1.
velocity all create 1 1234

# We assume box is cubic in the input file
variable L equal xhi-xlo
print "Box size $L"
Box size 3.684031

timestep 0.001

# Set up variables for the thermodynamic output
variable varstep equal step
variable vartemp equal temp
variable varpress equal press
variable varetotal equal etotal
compute  msd all msd
compute  com all com

# Periodically output particle position data in the lammps atom format
dump 		dumpatom  all atom 1000 dump-*.lammpstrj
dump_modify	dumpatom sort id first yes

# Periodically output the mean square displacement
fix	msd all ave/time 1 1 100 c_msd[4] file msd.txt

# Periodically output the center of mass
fix com all ave/time 1 1 100 c_com[1] c_com[2] c_com[3] file com.txt

# Perioically print out thermodynamic variables
thermo 100
thermo_style custom step temp press pe

# Do gel equilibration in nvt
fix equilibrate all nvt temp 1 1 1
run 100000
Generated 0 of 0 mixed pair_coeff terms from geometric mixing rule
Step          Temp          Press          PotEng
130   1              0.17992788    -5.4999875
Averages over the last 501 of 1002 rows, steps 50200 to 100130:
Temp Press PotEng
1.00386 -0.185746 -9.63727
Loop time of 1.34418 on 1 procs for 100000 steps with 10 atoms

unfix equilibrate

# Write out a restart file to input to a different script
write_restart equil_100000.restart
System init for write_restart ...
Generated 0 of 0 mixed pair_coeff terms from geometric mixing rule
